Circuit: * C:\Users\loren\Documents\Projects\PARSEC Electrical\avionics\valves\prop_valve_driver\Spice Sims\DC_Valve.asc

Direct Newton iteration for .op point succeeded.

Date: Sat Jan 23 21:51:39 2021
Total elapsed time: 0.486 seconds.

tnom = 27
temp = 27
method = modified trap
totiter = 11886
traniter = 11880
tranpoints = 3561
accept = 3013
rejected = 548
matrix size = 142
fillins = 55
solver = Normal
Thread vector: 13.8/11.9[3] 1.5/2.0[1] 4.9/3.0[3] 0.5/1.5[1]  2592/500
Matrix Compiler1: 8.24 KB object code size  2.0/1.3/[0.6]
Matrix Compiler2: 10.75 KB object code size  0.9/1.9/[0.6]

