Circuit: * C:\Users\loren\Documents\Projects\PARSEC Valves\Spice Sims\DC_Valve.asc

Direct Newton iteration for .op point succeeded.

Date: Tue Sep 22 13:34:13 2020
Total elapsed time: 0.339 seconds.

tnom = 27
temp = 27
method = modified trap
totiter = 11678
traniter = 11670
tranpoints = 3151
accept = 2734
rejected = 417
matrix size = 142
fillins = 55
solver = Normal
Thread vector: 12.2/7.4[3] 1.3/3.8[1] 3.9/2.1[3] 0.4/1.4[1]  2592/500
Matrix Compiler1: 8.24 KB object code size  1.9/1.1/[0.4]
Matrix Compiler2: 10.75 KB object code size  0.9/1.6/[0.5]

